[General]
network = p2p_sim.simulations.POWNetwork

sim-time-limit=3000s
record-eventlog = true
eventlog-file = ${resultdir}/${configname}-${datetime}-${runnumber}.elog

**.miners = "1 3 5"
**.netDefaultNodeList =  "0 2 4"
**.count = 12
**.isNewNetwork = true
**.coinbaseOutput = 25
**.timeToStartSchedule = 500
**.stopAddrPollingTime = 250