[General]
network = p2p_sim.simulations.POWNetwork

sim-time-limit=360s
record-eventlog = true
eventlog-message-detail-pattern = *data, *versionNo
eventlog-file = ${resultdir}/${configname}-${datetime}-${runnumber}.elog

**.count = 12
**.node[*].defaultNodeList = "0 2 4"